#======================================================================

# CRYSTAL DATA

#----------------------------------------------------------------------

data_VESTA_phase_1


_pd_phase_name                         'O2 Sn1                                '
_cell_length_a                         9.05013
_cell_length_b                         9.05013
_cell_length_c                         6.15109
_cell_angle_alpha                      90
_cell_angle_beta                       90
_cell_angle_gamma                      90
_symmetry_space_group_name_H-M         'P 1'
_symmetry_Int_Tables_number            1

loop_
_symmetry_equiv_pos_as_xyz
   'x, y, z'

loop_
   _atom_site_label
   _atom_site_occupancy
   _atom_site_fract_x
   _atom_site_fract_y
   _atom_site_fract_z
   _atom_site_adp_type
   _atom_site_B_iso_or_equiv
   _atom_site_type_symbol
   Sn1        1.0    -0.000000      0.000000      0.000000     Biso  1.000000 Sn
   Sn2        1.0    -0.000000      0.500000      0.000000     Biso  1.000000 Sn
   Sn3        1.0     0.500000      0.000000      0.000000     Biso  1.000000 Sn
   Sn4        1.0     0.500000      0.500000      0.000000     Biso  1.000000 Sn
   Sn5        1.0     0.250000      0.250000      0.250000     Biso  1.000000 Sn
   Sn6        1.0     0.250000      0.750000      0.250000     Biso  1.000000 Sn
   Sn7        1.0     0.750000      0.250000      0.250000     Biso  1.000000 Sn
   Sn8        1.0     0.750000      0.750000      0.250000     Biso  1.000000 Sn
   Sn9        1.0    -0.000000      0.000000      0.500000     Biso  1.000000 Sn
   Sn10       1.0    -0.000000      0.500000      0.500000     Biso  1.000000 Sn
   Sn11       1.0     0.500000      0.000000      0.500000     Biso  1.000000 Sn
   Sn12       1.0     0.500000      0.500000      0.500000     Biso  1.000000 Sn
   Sn13       1.0     0.250000      0.250000      0.750000     Biso  1.000000 Sn
   Sn14       1.0     0.250000      0.750000      0.750000     Biso  1.000000 Sn
   Sn15       1.0     0.750000      0.250000      0.750000     Biso  1.000000 Sn
   Sn16       1.0     0.750000      0.750000      0.750000     Biso  1.000000 Sn
   O1         1.0     0.152445      0.152445     -0.000000     Biso  1.000000 O
   O2         1.0     0.152445      0.652445     -0.000000     Biso  1.000000 O
   O3         1.0     0.652445      0.152445      0.000000     Biso  1.000000 O
   O4         1.0     0.652445      0.652445      0.000000     Biso  1.000000 O
   O5         1.0     0.347555      0.347555      0.000000     Biso  1.000000 O
   O6         1.0     0.347555      0.847555     -0.000000     Biso  1.000000 O
   O7         1.0     0.847555      0.347555      0.000000     Biso  1.000000 O
   O8         1.0     0.847555      0.847555     -0.000000     Biso  1.000000 O
   O9         1.0     0.097555      0.402445      0.250000     Biso  1.000000 O
   O10        1.0     0.097555      0.902445      0.250000     Biso  1.000000 O
   O11        1.0     0.597555      0.402445      0.250000     Biso  1.000000 O
   O12        1.0     0.597555      0.902445      0.250000     Biso  1.000000 O
   O13        1.0     0.402445      0.097555      0.250000     Biso  1.000000 O
   O14        1.0     0.402445      0.597555      0.250000     Biso  1.000000 O
   O15        1.0     0.902445      0.097555      0.250000     Biso  1.000000 O
   O16        1.0     0.902445      0.597555      0.250000     Biso  1.000000 O
   O17        1.0     0.152445      0.152445      0.500000     Biso  1.000000 O
   O18        1.0     0.152445      0.652445      0.500000     Biso  1.000000 O
   O19        1.0     0.652445      0.152445      0.500000     Biso  1.000000 O
   O20        1.0     0.652445      0.652445      0.500000     Biso  1.000000 O
   O21        1.0     0.347555      0.347555      0.500000     Biso  1.000000 O
   O22        1.0     0.347555      0.847555      0.500000     Biso  1.000000 O
   O23        1.0     0.847555      0.347555      0.500000     Biso  1.000000 O
   O24        1.0     0.847555      0.847555      0.500000     Biso  1.000000 O
   O25        1.0     0.097555      0.402445      0.750000     Biso  1.000000 O
   O26        1.0     0.097555      0.902445      0.750000     Biso  1.000000 O
   O27        1.0     0.597555      0.402445      0.750000     Biso  1.000000 O
   O28        1.0     0.597555      0.902445      0.750000     Biso  1.000000 O
   O29        1.0     0.402445      0.097555      0.750000     Biso  1.000000 O
   O30        1.0     0.402445      0.597555      0.750000     Biso  1.000000 O
   O31        1.0     0.902445      0.097555      0.750000     Biso  1.000000 O
   O32        1.0     0.902445      0.597555      0.750000     Biso  1.000000 O
